Version 4
SHEET 1 1124 680
WIRE 928 -208 224 -208
WIRE 224 -144 224 -208
WIRE 224 -144 128 -144
WIRE 304 -144 224 -144
WIRE 128 -96 128 -144
WIRE 304 -96 304 -144
WIRE 928 -48 928 -208
WIRE 128 32 128 -16
WIRE 128 32 64 32
WIRE 304 32 304 -16
WIRE 368 32 304 32
WIRE 928 80 928 32
WIRE 1104 80 928 80
WIRE 1104 96 1104 80
WIRE 128 112 128 32
WIRE 304 112 304 32
WIRE 928 128 928 80
WIRE -224 160 -288 160
WIRE -128 160 -224 160
WIRE 64 160 -48 160
WIRE 480 160 368 160
WIRE 640 160 560 160
WIRE 704 160 640 160
WIRE 640 208 640 160
WIRE 688 208 640 208
WIRE -224 224 -224 160
WIRE 688 224 688 208
WIRE 128 320 128 208
WIRE 208 320 128 320
WIRE 304 320 304 208
WIRE 304 320 208 320
WIRE 688 320 688 304
WIRE 688 320 640 320
WIRE 640 336 640 320
WIRE 208 352 208 320
WIRE -224 400 -224 304
WIRE 208 464 208 432
WIRE 928 464 928 208
WIRE 928 464 208 464
FLAG 1104 96 0
FLAG 640 336 0
FLAG -224 400 0
SYMBOL npn 64 112 R0
SYMATTR InstName Q1
SYMATTR Value 2N2222
SYMBOL npn 368 112 M0
SYMATTR InstName Q2
SYMATTR Value 2N2222
SYMBOL res 112 -112 R0
SYMATTR InstName R1
SYMATTR Value 2K20
SYMBOL res 288 -112 R0
SYMATTR InstName R2
SYMATTR Value 2K20
SYMBOL res -32 144 R90
WINDOW 0 0 56 VBottom 2
WINDOW 3 32 56 VTop 2
SYMATTR InstName R3
SYMATTR Value 4K70
SYMBOL res 576 144 R90
WINDOW 0 0 56 VBottom 2
WINDOW 3 32 56 VTop 2
SYMATTR InstName R5
SYMATTR Value 4K70
SYMBOL voltage 928 -64 R0
WINDOW 123 0 0 Left 0
WINDOW 39 0 0 Left 0
SYMATTR InstName V1
SYMATTR Value 10
SYMBOL voltage 928 112 R0
WINDOW 123 0 0 Left 0
WINDOW 39 0 0 Left 0
SYMATTR InstName V2
SYMATTR Value 10
SYMBOL voltage -224 208 R0
WINDOW 123 0 0 Left 0
WINDOW 39 0 0 Left 0
SYMATTR InstName V3
SYMATTR Value SINE(0 50m 1K)
SYMBOL current 208 352 R0
WINDOW 123 0 0 Left 0
WINDOW 39 0 0 Left 0
SYMATTR InstName I1
SYMATTR Value 4.219m
SYMBOL voltage 688 208 R0
WINDOW 123 0 0 Left 0
WINDOW 39 0 0 Left 0
SYMATTR InstName V4
SYMATTR Value SINE(0 50m 1K)
TEXT 560 -88 Left 2 !.tran 0 2 1.997 0.0001
