Version 4
SHEET 1 920 680
WIRE 736 -240 80 -240
WIRE 432 -176 208 -176
WIRE 688 -176 432 -176
WIRE 864 -176 688 -176
WIRE 208 -80 208 -176
WIRE 208 -80 176 -80
WIRE 432 -80 432 -176
WIRE 432 -80 400 -80
WIRE 688 -80 688 -176
WIRE 688 -80 640 -80
WIRE 128 -48 96 -48
WIRE 352 -48 320 -48
WIRE 592 -48 560 -48
WIRE 864 -48 864 -176
WIRE 80 0 80 -240
WIRE 80 0 -16 0
WIRE 96 0 96 -48
WIRE 96 0 80 0
WIRE 176 0 176 -32
WIRE 320 0 320 -48
WIRE 320 0 176 0
WIRE 400 0 400 -32
WIRE 560 0 560 -48
WIRE 560 0 400 0
WIRE 640 0 640 -32
WIRE 736 0 736 -240
WIRE 736 0 640 0
WIRE -16 16 -16 0
WIRE 176 32 176 0
WIRE 400 32 400 0
WIRE 640 32 640 0
WIRE 240 80 176 80
WIRE 464 80 400 80
WIRE 704 80 640 80
WIRE 96 112 96 0
WIRE 128 112 96 112
WIRE 320 112 320 0
WIRE 352 112 320 112
WIRE 560 112 560 0
WIRE 592 112 560 112
WIRE -16 176 -16 96
WIRE 240 176 240 80
WIRE 240 176 -16 176
WIRE 464 176 464 80
WIRE 464 176 240 176
WIRE 704 176 704 80
WIRE 704 176 464 176
WIRE 864 176 864 32
WIRE 864 176 704 176
WIRE 464 208 464 176
FLAG 464 208 0
SYMBOL AdvEE_Components\\MbreakP 128 -128 R0
SYMATTR InstName U1
SYMBOL AdvEE_Components\\MbreakN 128 32 R0
SYMATTR InstName U2
SYMBOL AdvEE_Components\\MbreakP 352 -128 R0
SYMATTR InstName U3
SYMBOL AdvEE_Components\\MbreakN 352 32 R0
SYMATTR InstName U4
SYMBOL AdvEE_Components\\MbreakP 592 -128 R0
SYMATTR InstName U5
SYMBOL AdvEE_Components\\MbreakN 592 32 R0
SYMATTR InstName U6
SYMBOL voltage 864 -64 R0
WINDOW 123 0 0 Left 0
WINDOW 39 0 0 Left 0
SYMATTR InstName V1
SYMATTR Value 3
SYMBOL voltage -16 0 R0
WINDOW 123 0 0 Left 0
WINDOW 39 0 0 Left 0
SYMATTR InstName V2
SYMATTR Value PULSE(0 2 0 0 0 1m 0 1)
TEXT 168 -272 Left 2 !.tran 0 0.1 0 0.001
