Version 4
SHEET 1 880 680
WIRE 544 64 176 64
WIRE 128 144 48 144
WIRE 544 160 544 64
WIRE 48 192 48 144
WIRE 48 192 -16 192
WIRE 176 192 176 160
WIRE 256 192 176 192
WIRE 176 208 176 192
WIRE 48 288 48 192
WIRE 128 288 48 288
WIRE 544 304 544 240
WIRE 544 304 176 304
WIRE 176 352 176 304
FLAG 176 352 0
SYMBOL AdvEE_Components\\MbreakP 128 64 R0
SYMATTR InstName U1
SYMBOL AdvEE_Components\\MbreakN 128 208 R0
SYMATTR InstName U2
SYMBOL voltage 544 144 R0
WINDOW 123 0 0 Left 0
WINDOW 39 0 0 Left 0
SYMATTR InstName V1
SYMATTR Value 5
TEXT 288 24 Left 2 !.op
