Version 4
SHEET 1 880 680
WIRE 544 112 544 64
WIRE 544 112 176 112
WIRE 128 144 48 144
WIRE 544 160 544 112
WIRE 48 192 48 144
WIRE 48 192 -16 192
WIRE 176 192 176 160
WIRE 288 192 176 192
WIRE 336 192 288 192
WIRE -16 208 -16 192
WIRE 176 208 176 192
WIRE 288 224 288 192
WIRE 208 256 176 256
WIRE 48 288 48 192
WIRE 128 288 48 288
WIRE 288 304 288 288
WIRE 544 304 544 240
WIRE 544 304 288 304
WIRE -16 320 -16 288
WIRE 176 320 -16 320
WIRE 208 320 208 256
WIRE 208 320 176 320
WIRE 288 320 288 304
WIRE 288 320 208 320
WIRE 176 352 176 320
FLAG 176 352 0
SYMBOL AdvEE_Components\\MbreakP 128 64 R0
SYMATTR InstName U1
SYMBOL AdvEE_Components\\MbreakN 128 208 R0
SYMATTR InstName U2
SYMBOL voltage 544 144 R0
WINDOW 123 0 0 Left 0
WINDOW 39 0 0 Left 0
SYMATTR InstName V1
SYMATTR Value 5
SYMBOL cap 272 224 R0
SYMATTR InstName C1
SYMATTR Value 25p
SYMBOL voltage -16 192 R0
WINDOW 123 0 0 Left 0
WINDOW 39 0 0 Left 0
SYMATTR InstName V2
SYMATTR Value PULSE(0 2 0 20n 20n 500u 1m)
TEXT 288 24 Left 2 ;.op
TEXT -8 -16 Left 2 !.tran 0 1 0.998 0.001
