Version 4
SHEET 1 880 680
WIRE 640 112 64 112
WIRE 368 144 192 144
WIRE 544 144 368 144
WIRE 720 144 544 144
WIRE 192 176 192 144
WIRE 368 176 368 144
WIRE 544 176 544 144
WIRE 192 224 192 192
WIRE 368 224 368 192
WIRE 544 224 544 192
WIRE 144 256 112 256
WIRE 320 256 288 256
WIRE 496 256 464 256
WIRE 720 272 720 144
WIRE 64 304 64 112
WIRE 112 304 112 256
WIRE 112 304 64 304
WIRE 192 304 192 272
WIRE 240 304 192 304
WIRE 288 304 288 256
WIRE 288 304 240 304
WIRE 368 304 368 272
WIRE 416 304 368 304
WIRE 464 304 464 256
WIRE 464 304 416 304
WIRE 544 304 544 272
WIRE 592 304 544 304
WIRE 640 304 640 112
WIRE 640 304 592 304
WIRE 192 336 192 304
WIRE 368 336 368 304
WIRE 544 336 544 304
WIRE 240 352 240 304
WIRE 416 352 416 304
WIRE 592 368 592 304
WIRE 112 416 112 304
WIRE 144 416 112 416
WIRE 192 416 192 384
WIRE 288 416 288 304
WIRE 320 416 288 416
WIRE 368 416 368 384
WIRE 464 416 464 304
WIRE 496 416 464 416
WIRE 544 416 544 384
WIRE 192 464 192 432
WIRE 240 464 240 416
WIRE 240 464 192 464
WIRE 368 464 368 432
WIRE 368 464 240 464
WIRE 416 464 416 416
WIRE 416 464 368 464
WIRE 544 464 544 432
WIRE 544 464 416 464
WIRE 592 464 592 432
WIRE 592 464 544 464
WIRE 720 464 720 352
WIRE 720 464 592 464
WIRE 720 480 720 464
FLAG 720 480 0
SYMBOL AdvEE_Components\\MbreakP 144 176 R0
SYMATTR InstName U1
SYMBOL AdvEE_Components\\MbreakN 144 336 R0
SYMATTR InstName U2
SYMBOL AdvEE_Components\\MbreakP 320 176 R0
SYMATTR InstName U3
SYMBOL AdvEE_Components\\MbreakN 320 336 R0
SYMATTR InstName U4
SYMBOL AdvEE_Components\\MbreakP 496 176 R0
SYMATTR InstName U5
SYMBOL AdvEE_Components\\MbreakN 496 336 R0
SYMATTR InstName U6
SYMBOL voltage 720 256 R0
WINDOW 123 0 0 Left 0
WINDOW 39 0 0 Left 0
SYMATTR InstName V1
SYMATTR Value 5
SYMBOL cap 224 352 R0
SYMATTR InstName C1
SYMATTR Value 50p
SYMBOL cap 400 352 R0
SYMATTR InstName C2
SYMATTR Value 50p
SYMBOL cap 576 368 R0
SYMATTR InstName C3
SYMATTR Value 50p
TEXT -264 64 Left 2 !.tran 0 0.0001 0.000098 0.00001
TEXT 192 64 Left 2 !.ic V(n001)=5
