Version 4
SHEET 1 880 680
WIRE 432 -32 224 -32
WIRE 224 80 224 -32
WIRE 224 80 176 80
WIRE 432 96 432 -32
WIRE 128 112 80 112
WIRE 80 144 80 112
WIRE 80 144 -16 144
WIRE 176 144 176 128
WIRE 288 144 176 144
WIRE 176 160 176 144
WIRE -16 176 -16 144
WIRE 288 176 288 144
WIRE 224 208 176 208
WIRE 80 240 80 144
WIRE 128 240 80 240
WIRE 224 256 224 208
WIRE 288 256 288 240
WIRE 288 256 224 256
WIRE 432 256 432 176
WIRE 432 256 288 256
WIRE -16 272 -16 256
WIRE 224 272 224 256
WIRE 224 272 -16 272
WIRE 224 304 224 272
FLAG 224 304 0
SYMBOL AdvEE_Components\\MbreakN 128 160 R0
SYMATTR InstName U1
SYMBOL AdvEE_Components\\MbreakP 128 32 R0
SYMATTR InstName U2
SYMBOL voltage 432 80 R0
WINDOW 123 0 0 Left 0
WINDOW 39 0 0 Left 0
SYMATTR InstName V1
SYMATTR Value 5
SYMBOL voltage -16 160 R0
WINDOW 123 0 0 Left 0
WINDOW 39 0 0 Left 0
SYMATTR InstName V2
SYMATTR Value PULSE(0 2.5 0 20n 20n 500u 1m)
SYMBOL cap 272 176 R0
SYMATTR InstName C1
SYMATTR Value 100p
TEXT -128 32 Left 2 !.tran 0 50 49.995 0.0001
