Version 4
SHEET 1 880 680
WIRE 176 48 96 48
WIRE 304 48 256 48
WIRE 416 48 304 48
WIRE 96 64 96 48
WIRE 416 112 416 48
WIRE 304 128 304 48
WIRE 96 256 96 224
WIRE 304 256 304 192
WIRE 304 256 96 256
WIRE 416 256 416 192
WIRE 416 256 304 256
WIRE 304 288 304 256
FLAG 304 288 0
SYMBOL voltage 96 48 R0
WINDOW 123 0 0 Left 0
WINDOW 39 0 0 Left 0
SYMATTR InstName V1
SYMATTR Value SINE(0 5 50)
SYMBOL voltage 96 128 R0
WINDOW 123 0 0 Left 0
WINDOW 39 0 0 Left 0
SYMATTR InstName V2
SYMATTR Value 20
SYMBOL res 272 32 R90
WINDOW 0 0 56 VBottom 2
WINDOW 3 32 56 VTop 2
SYMATTR InstName R1
SYMATTR Value 500
SYMBOL AdvEE_Components\\BZX55C5V6 320 192 R180
WINDOW 0 24 72 Left 0
WINDOW 3 24 0 Left 0
SYMATTR InstName U1
SYMBOL res 400 96 R0
SYMATTR InstName R2
SYMATTR Value 500
TEXT 80 288 Left 2 !.tran 0 200m 0
